<?xml version='1.0' encoding='UTF-8'?>
<nodes>
  <node id="Custom0" x="-0.0" y="0.0"/>
  <node id="Custom1" x="-0.0" y="12.0"/>
</nodes>
