<?xml version='1.0' encoding='UTF-8'?>
<edges>
  <edge id="" from="Custom0" to="Custom1" numLanes="1" width="3.5" shape="-0.000000,0.000000 -0.000000,3.000000 -0.000000,6.000000 -0.000000,9.000000 -0.000000,12.000000 "/>
  <edge id="-" to="Custom0" from="Custom1" numLanes="1" width="3.5" shape="-0.000000,12.000000 -0.000000,9.000000 -0.000000,6.000000 -0.000000,3.000000 -0.000000,0.000000 "/>
</edges>
