<?xml version='1.0' encoding='UTF-8'?>
<edges>
  <edge id="road_2" from="junction_0" to="junction_3" numLanes="2" width="3.5" shape="-8.537179,19.100969 -8.691285,20.443856 -8.699208,20.520303 -8.879947,22.472952 -8.885360,22.538048 -9.119364,25.710222 -9.121975,25.748473 -9.435284,30.740484 -9.917794,37.815840 -10.921830,46.181175 -12.843202,54.825102 -16.030411,62.752963 -20.704219,69.368441 -26.504659,74.760000 -32.801201,78.982752 -38.870179,82.055381 -44.090568,84.040954 -48.478976,85.154281 -52.292812,85.656986 -55.800081,85.783495 -59.129555,85.701108 -62.344763,85.380909 -65.612820,84.741656 -69.137961,83.683341 -73.035237,82.132229 -77.082385,80.191825 -80.955250,78.030968 -84.336343,75.828142 -87.027033,73.721908 -89.147880,71.731188 -90.878116,69.840510 -92.370524,68.048561 -93.689981,66.411504 -94.865438,64.818632 -96.011981,63.002367 -97.255920,60.651328 -98.650680,57.582890 -100.075159,54.076173 -101.368183,50.539202 -102.374748,47.383187 -102.997689,44.905786 -103.320074,42.989975 -103.458991,41.382493 -103.510187,39.810275 "/>
  <edge id="road_5" from="junction_4" to="junction_5" numLanes="3" width="3.5" shape="-103.500004,-26.993155 -103.473990,-46.946391 -103.292279,-66.700949 -102.800242,-86.097580 -101.846093,-104.948455 -100.123679,-122.808649 -96.720409,-138.652731 -90.742994,-151.486662 -81.274123,-160.889667 -67.270491,-166.781889 -50.435303,-168.856862 -33.953701,-166.971088 -21.036430,-161.441369 -13.163284,-152.756777 -8.918888,-140.857961 -7.248079,-126.162962 -6.999392,-109.820121 "/>
  <edge id="road_1" from="junction_0" to="junction_7" numLanes="2" width="3.5" shape="0.000235,19.959452 -0.157184,33.546551 -1.237979,46.645173 -4.112062,59.031752 -9.636259,70.596585 -18.465282,81.199274 -29.982683,90.023847 -43.091099,96.030027 -56.697441,98.290475 -70.039891,96.311393 -82.565746,90.871243 -93.476010,83.154287 -101.915620,74.475308 -107.390309,66.006115 -110.475440,58.253332 -111.941652,51.551866 -112.515099,46.254959 -112.799271,42.713047 -112.944569,40.723492 -112.993827,39.835675 -113.000500,39.440854 "/>
  <edge id="road_7" from="junction_7" to="junction_8" numLanes="2" width="3.5" shape="-113.004432,40.176073 -112.664432,33.426073 -112.555432,31.262102 -112.324432,26.676073 -111.644432,13.176073 "/>
  <edge id="road_8" from="junction_8" to="junction_4" numLanes="2" width="3.5" shape="-111.604294,13.273326 -111.479074,10.747832 -111.352372,8.216128 -111.222626,5.670357 -111.088263,3.102379 -110.948173,0.505661 -110.803329,-2.115836 -110.655277,-4.754490 -110.505580,-7.402449 "/>
  <edge id="road_4" from="junction_3" to="junction_4" numLanes="2" width="3.5" shape="-103.500000,40.000000 -103.500000,-7.000000 "/>
  <edge id="road_0" from="junction_5" to="junction_0" numLanes="4" width="3.5" shape="-7.000000,-70.000000 -7.000000,0.000000 "/>
</edges>
