<?xml version="1.0" encoding="UTF-8"?>

<!-- generated on Sun Jun 24 09:46:43 2018 by SUMO netconvert Version 0.32.0
<?xml version="1.0" encoding="UTF-8"?>

<configuration xmlns:xsi="http://www.w3.org/2001/XMLSchema-instance" xsi:noNamespaceSchemaLocation="http://sumo.dlr.de/xsd/netconvertConfiguration.xsd">

    <input>
        <node-files value="/Users/kimiahs/dev/worlds/test_my_world_net/sumo.nod.xml"/>
        <edge-files value="/Users/kimiahs/dev/worlds/test_my_world_net/sumo.edg.xml"/>
    </input>

    <output>
        <output-file value="/Users/kimiahs/dev/worlds/test_my_world_net/sumo.net.xml"/>
    </output>

</configuration>
-->

<net version="0.27" xmlns:xsi="http://www.w3.org/2001/XMLSchema-instance" xsi:noNamespaceSchemaLocation="http://sumo.dlr.de/xsd/net_file.xsd">

    <location netOffset="116.00,168.86" convBoundary="0.00,0.00,119.50,267.15" origBoundary="-116.00,-168.86,3.50,98.29" projParameter="!"/>

    <edge id=":junction_0_0" function="internal">
        <lane id=":junction_0_0_0" index="0" speed="13.90" length="19.99" width="3.50" shape="121.60,168.86 121.40,188.86"/>
        <lane id=":junction_0_0_1" index="1" speed="13.90" length="19.99" width="3.50" shape="118.00,168.86 117.80,188.84"/>
    </edge>
    <edge id=":junction_0_2" function="internal">
        <lane id=":junction_0_2_0" index="0" speed="13.90" length="20.09" width="3.50" shape="114.40,168.86 114.31,174.82 114.03,178.89 113.53,182.95 112.79,188.86"/>
        <lane id=":junction_0_2_1" index="1" speed="13.90" length="20.09" width="3.50" shape="110.80,168.86 110.71,174.82 110.41,178.89 109.91,182.95 109.17,188.86"/>
    </edge>
    <edge id=":junction_3_0" function="internal">
        <lane id=":junction_3_0_0" index="0" speed="13.90" length="0.25" width="3.50" shape="7.10,209.01 7.10,208.70"/>
        <lane id=":junction_3_0_1" index="1" speed="13.90" length="0.25" width="3.50" shape="10.70,208.89 10.70,208.70"/>
    </edge>
    <edge id=":junction_4_0" function="internal">
        <lane id=":junction_4_0_0" index="0" speed="13.90" length="20.00" width="3.50" shape="7.10,161.86 7.10,141.86"/>
        <lane id=":junction_4_0_1" index="1" speed="13.90" length="20.00" width="3.50" shape="10.70,161.86 10.70,141.86"/>
    </edge>
    <edge id=":junction_4_2" function="internal">
        <lane id=":junction_4_2_0" index="0" speed="13.90" length="20.36" width="3.50" shape="0.06,161.86 0.84,155.95 1.99,151.92 3.04,147.86 3.50,141.86"/>
        <lane id=":junction_4_2_1" index="1" speed="13.90" length="20.36" width="3.50" shape="3.67,161.86 4.44,155.95 5.59,151.92 6.64,147.86 7.10,141.86"/>
    </edge>
    <edge id=":junction_5_0" function="internal">
        <lane id=":junction_5_0_0" index="0" speed="13.90" length="39.99" width="3.50" shape="118.00,58.90 121.60,98.86"/>
        <lane id=":junction_5_0_1" index="1" speed="13.90" length="39.99" width="3.50" shape="118.00,58.90 118.00,98.86"/>
        <lane id=":junction_5_0_2" index="2" speed="13.90" length="39.99" width="3.50" shape="114.40,58.95 114.40,98.86"/>
        <lane id=":junction_5_0_3" index="3" speed="13.90" length="39.99" width="3.50" shape="110.80,58.86 110.80,98.86"/>
    </edge>
    <edge id=":junction_7_0" function="internal">
        <lane id=":junction_7_0_0" index="0" speed="13.90" length="0.24" width="3.50" shape="-2.39,208.85 -2.39,208.74 -2.39,208.67 -2.39,208.59 -2.38,208.49"/>
        <lane id=":junction_7_0_1" index="1" speed="13.90" length="0.24" width="3.50" shape="1.21,208.79 1.21,208.75 1.21,208.73 1.21,208.70 1.21,208.67"/>
    </edge>
    <edge id=":junction_8_0" function="internal">
        <lane id=":junction_8_0_0" index="0" speed="13.90" length="0.30" width="3.50" shape="-1.05,181.96 -1.04,181.87 -1.02,181.81 -1.00,181.75 -0.99,181.66"/>
        <lane id=":junction_8_0_1" index="1" speed="13.90" length="0.30" width="3.50" shape="2.55,182.14 2.56,182.05 2.58,181.99 2.60,181.93 2.61,181.84"/>
    </edge>

    <edge id="road_0" from="junction_5" to="junction_0" priority="-1" shape="109.00,98.86 109.00,168.86">
        <lane id="road_0_0" index="0" speed="13.90" length="70.00" width="3.50" shape="121.60,98.86 121.60,168.86"/>
        <lane id="road_0_1" index="1" speed="13.90" length="70.00" width="3.50" shape="118.00,98.86 118.00,168.86"/>
        <lane id="road_0_2" index="2" speed="13.90" length="70.00" width="3.50" shape="114.40,98.86 114.40,168.86"/>
        <lane id="road_0_3" index="3" speed="13.90" length="70.00" width="3.50" shape="110.80,98.86 110.80,168.86"/>
    </edge>
    <edge id="road_1" from="junction_0" to="junction_7" priority="-1" shape="116.00,188.82 115.84,202.40 114.76,215.50 111.89,227.89 106.36,239.45 97.53,250.06 86.02,258.88 72.91,264.89 59.30,267.15 45.96,265.17 33.43,259.73 22.52,252.01 14.08,243.33 8.61,234.86 5.52,227.11 4.06,220.41 3.48,215.11 3.20,211.57 3.06,209.58 3.01,208.69 3.00,208.30">
        <lane id="road_1_0" index="0" speed="13.90" length="209.65" width="3.50" shape="121.40,188.86 121.24,202.66 120.11,216.34 117.01,229.68 110.95,242.39 101.30,253.98 88.82,263.54 74.50,270.10 59.35,272.61 44.46,270.41 30.77,264.46 19.00,256.13 9.84,246.71 3.79,237.35 0.34,228.70 -1.28,221.28 -1.89,215.63 -2.18,211.99 -2.33,209.94 -2.39,208.85"/>
        <lane id="road_1_1" index="1" speed="13.90" length="209.65" width="3.50" shape="117.80,188.84 117.64,202.49 116.55,215.78 113.60,228.49 107.89,240.43 98.79,251.36 86.95,260.43 73.44,266.62 59.32,268.97 45.46,266.91 32.55,261.31 21.35,253.38 12.67,244.46 7.00,235.69 3.80,227.64 2.28,220.70 1.69,215.29 1.41,211.71 1.26,209.70 1.21,208.79"/>
    </edge>
    <edge id="road_2" from="junction_0" to="junction_3" priority="-1" shape="107.46,187.96 107.31,189.30 107.12,191.33 106.88,194.57 106.56,199.60 106.08,206.67 105.08,215.04 103.16,223.68 99.97,231.61 95.30,238.23 89.50,243.62 83.20,247.84 77.13,250.91 71.91,252.90 67.52,254.01 63.71,254.51 60.20,254.64 56.87,254.56 53.66,254.24 50.39,253.60 46.86,252.54 42.96,250.99 38.92,249.05 35.04,246.89 31.66,244.69 28.97,242.58 26.85,240.59 25.12,238.70 23.63,236.91 22.31,235.27 21.13,233.68 19.99,231.86 18.74,229.51 17.35,226.44 15.92,222.93 14.63,219.40 13.63,216.24 13.00,213.76 12.68,211.85 12.54,210.24 12.49,208.67">
        <lane id="road_2_0" index="0" speed="13.90" length="175.36" width="3.50" shape="112.79,188.86 112.68,189.85 112.50,191.77 112.27,194.93 111.95,199.95 111.46,207.18 110.41,215.95 108.33,225.29 104.74,234.21 99.38,241.80 92.86,247.86 85.93,252.51 79.32,255.86 73.54,258.06 68.54,259.32 64.16,259.90 60.23,260.04 56.54,259.95 52.87,259.59 49.09,258.85 45.08,257.64 40.80,255.94 36.43,253.85 32.25,251.51 28.52,249.08 25.45,246.68 23.01,244.38 21.05,242.25 19.45,240.33 18.04,238.57 16.67,236.72 15.31,234.57 13.90,231.89 12.39,228.57 10.89,224.88 9.52,221.14 8.43,217.72 7.71,214.87 7.32,212.53 7.15,210.56 7.10,209.01"/>
        <lane id="road_2_1" index="1" speed="13.90" length="175.36" width="3.50" shape="109.17,188.86 109.10,189.48 108.91,191.48 108.68,194.69 108.36,199.72 107.87,206.84 106.85,215.34 104.88,224.22 101.56,232.48 96.66,239.42 90.62,245.03 84.11,249.40 77.86,252.56 72.45,254.62 67.86,255.78 63.86,256.31 60.21,256.44 56.76,256.36 53.39,256.02 49.95,255.35 46.27,254.24 42.24,252.64 38.09,250.65 34.11,248.43 30.62,246.15 27.80,243.95 25.57,241.85 23.77,239.88 22.24,238.05 20.89,236.37 19.65,234.69 18.43,232.76 17.13,230.30 15.70,227.15 14.25,223.58 12.93,219.98 11.89,216.73 11.24,214.13 10.89,212.07 10.74,210.35 10.70,208.89"/>
    </edge>
    <edge id="road_4" from="junction_3" to="junction_4" priority="-1" shape="12.50,208.86 12.50,161.86">
        <lane id="road_4_0" index="0" speed="13.90" length="46.84" width="3.50" shape="7.10,208.70 7.10,161.86"/>
        <lane id="road_4_1" index="1" speed="13.90" length="46.84" width="3.50" shape="10.70,208.70 10.70,161.86"/>
    </edge>
    <edge id="road_5" from="junction_4" to="junction_5" priority="-1" shape="12.50,141.86 12.53,121.91 12.71,102.16 13.20,82.76 14.15,63.91 15.88,46.05 19.28,30.20 25.26,17.37 34.73,7.97 48.73,2.07 65.56,0.00 82.05,1.89 94.96,7.42 102.84,16.10 107.08,28.00 108.75,42.69 109.00,59.04">
        <lane id="road_5_0" index="0" speed="13.90" length="274.90" width="3.50" shape="3.50,141.86 3.53,121.86 3.71,102.00 4.21,82.42 5.18,63.25 6.97,44.67 10.69,27.32 17.78,12.12 29.62,0.35 46.39,-6.70 65.53,-9.06 84.38,-6.91 100.31,-0.09 110.71,11.39 115.91,25.95 117.74,42.12 118.00,58.90"/>
        <lane id="road_5_1" index="1" speed="13.90" length="274.90" width="3.50" shape="7.10,141.86 7.13,121.88 7.31,102.06 7.80,82.55 8.77,63.51 10.53,45.22 14.13,28.48 20.77,14.22 31.66,3.40 47.33,-3.19 65.54,-5.44 83.45,-3.39 98.17,2.92 107.56,13.27 112.38,26.77 114.15,42.35 114.40,58.95"/>
        <lane id="road_5_2" index="2" speed="13.90" length="274.90" width="3.50" shape="10.70,141.86 10.73,121.90 10.91,102.12 11.40,82.69 12.36,63.78 14.09,45.77 17.56,29.63 23.76,16.32 33.71,6.44 48.26,0.32 65.56,-1.81 82.51,0.13 96.03,5.92 104.41,15.16 108.85,27.59 110.55,42.58 110.80,58.86"/>
    </edge>
    <edge id="road_7" from="junction_7" to="junction_8" priority="-1" shape="3.00,209.03 3.34,202.28 3.44,200.12 3.68,195.53 4.36,182.03">
        <lane id="road_7_0" index="0" speed="13.90" length="26.56" width="3.50" shape="-2.38,208.49 -2.06,202.01 -1.95,199.85 -1.72,195.26 -1.05,181.96"/>
        <lane id="road_7_1" index="1" speed="13.90" length="26.56" width="3.50" shape="1.21,208.67 1.54,202.19 1.65,200.03 1.88,195.44 2.55,182.14"/>
    </edge>
    <edge id="road_8" from="junction_8" to="junction_4" priority="-1" shape="4.40,182.13 4.52,179.60 4.65,177.07 4.78,174.53 4.91,171.96 5.05,169.36 5.20,166.74 5.34,164.10 5.49,161.45">
        <lane id="road_8_0" index="0" speed="13.90" length="19.92" width="3.50" shape="-0.99,181.66 -0.87,179.34 -0.75,176.80 -0.62,174.25 -0.48,171.67 -0.34,169.07 -0.19,166.44 -0.05,163.80 0.06,161.86"/>
        <lane id="road_8_1" index="1" speed="13.90" length="19.92" width="3.50" shape="2.61,181.84 2.72,179.52 2.85,176.98 2.98,174.43 3.11,171.86 3.25,169.26 3.40,166.64 3.55,164.00 3.67,161.86"/>
    </edge>

    <junction id="junction_0" type="priority" x="116.00" y="168.86" incLanes="road_0_0 road_0_1 road_0_2 road_0_3" intLanes=":junction_0_0_0 :junction_0_0_1 :junction_0_2_0 :junction_0_2_1" shape="123.50,168.86 123.00,188.86 107.00,188.86 108.70,168.86" customShape="1">
        <request index="0" response="0000" foes="0000" cont="0"/>
        <request index="1" response="0000" foes="0000" cont="0"/>
        <request index="2" response="0000" foes="0000" cont="0"/>
        <request index="3" response="0000" foes="0000" cont="0"/>
    </junction>
    <junction id="junction_3" type="priority" x="10.00" y="208.86" incLanes="road_2_0 road_2_1" intLanes=":junction_3_0_0 :junction_3_0_1" shape="5.35,209.06 12.45,208.83 12.45,208.70 5.35,208.70">
        <request index="0" response="00" foes="00" cont="0"/>
        <request index="1" response="00" foes="00" cont="0"/>
    </junction>
    <junction id="junction_4" type="priority" x="10.00" y="151.86" incLanes="road_4_0 road_4_1 road_8_0 road_8_1" intLanes=":junction_4_0_0 :junction_4_0_1 :junction_4_2_0 :junction_4_2_1" shape="13.00,141.86 12.50,161.86 -2.00,161.86 1.50,141.86" customShape="1">
        <request index="0" response="1100" foes="1100" cont="0"/>
        <request index="1" response="1100" foes="1100" cont="0"/>
        <request index="2" response="0000" foes="0011" cont="0"/>
        <request index="3" response="0000" foes="0011" cont="0"/>
    </junction>
    <junction id="junction_5" type="priority" x="119.50" y="58.86" incLanes="road_5_0 road_5_1 road_5_2" intLanes=":junction_5_0_0 :junction_5_0_1 :junction_5_0_2 :junction_5_0_3" shape="119.50,58.86 123.50,98.86 108.90,98.86 108.90,58.86" customShape="1">
        <request index="0" response="0000" foes="0000" cont="0"/>
        <request index="1" response="0000" foes="0000" cont="0"/>
        <request index="2" response="0000" foes="0000" cont="0"/>
        <request index="3" response="0000" foes="0000" cont="0"/>
    </junction>
    <junction id="junction_7" type="priority" x="0.00" y="208.86" incLanes="road_1_0 road_1_1" intLanes=":junction_7_0_0 :junction_7_0_1" shape="-4.14,208.88 2.96,208.75 -4.13,208.40">
        <request index="0" response="00" foes="00" cont="0"/>
        <request index="1" response="00" foes="00" cont="0"/>
    </junction>
    <junction id="junction_8" type="priority" x="2.00" y="181.86" incLanes="road_7_0 road_7_1" intLanes=":junction_8_0_0 :junction_8_0_1" shape="4.36,181.93 -2.74,181.58 -2.80,181.87 4.30,182.23">
        <request index="0" response="00" foes="00" cont="0"/>
        <request index="1" response="00" foes="00" cont="0"/>
    </junction>

    <connection from="road_0" to="road_1" fromLane="0" toLane="0" via=":junction_0_0_0" dir="s" state="M"/>
    <connection from="road_0" to="road_1" fromLane="1" toLane="1" via=":junction_0_0_1" dir="s" state="M"/>
    <connection from="road_0" to="road_2" fromLane="2" toLane="0" via=":junction_0_2_0" dir="s" state="M"/>
    <connection from="road_0" to="road_2" fromLane="3" toLane="1" via=":junction_0_2_1" dir="s" state="M"/>
    <connection from="road_1" to="road_7" fromLane="0" toLane="0" via=":junction_7_0_0" dir="s" state="M"/>
    <connection from="road_1" to="road_7" fromLane="1" toLane="1" via=":junction_7_0_1" dir="s" state="M"/>
    <connection from="road_2" to="road_4" fromLane="0" toLane="0" via=":junction_3_0_0" dir="s" state="M"/>
    <connection from="road_2" to="road_4" fromLane="1" toLane="1" via=":junction_3_0_1" dir="s" state="M"/>
    <connection from="road_4" to="road_5" fromLane="0" toLane="1" via=":junction_4_0_0" dir="s" state="m"/>
    <connection from="road_4" to="road_5" fromLane="1" toLane="2" via=":junction_4_0_1" dir="s" state="m"/>
    <connection from="road_5" to="road_0" fromLane="0" toLane="0" via=":junction_5_0_0" dir="s" state="M"/>
    <connection from="road_5" to="road_0" fromLane="0" toLane="1" via=":junction_5_0_1" dir="s" state="M"/>
    <connection from="road_5" to="road_0" fromLane="1" toLane="2" via=":junction_5_0_2" dir="s" state="M"/>
    <connection from="road_5" to="road_0" fromLane="2" toLane="3" via=":junction_5_0_3" dir="s" state="M"/>
    <connection from="road_7" to="road_8" fromLane="0" toLane="0" via=":junction_8_0_0" dir="s" state="M"/>
    <connection from="road_7" to="road_8" fromLane="1" toLane="1" via=":junction_8_0_1" dir="s" state="M"/>
    <connection from="road_8" to="road_5" fromLane="0" toLane="0" via=":junction_4_2_0" dir="s" state="M"/>
    <connection from="road_8" to="road_5" fromLane="1" toLane="1" via=":junction_4_2_1" dir="s" state="M"/>

    <connection from=":junction_0_0" to="road_1" fromLane="0" toLane="0" dir="s" state="M"/>
    <connection from=":junction_0_0" to="road_1" fromLane="1" toLane="1" dir="s" state="M"/>
    <connection from=":junction_0_2" to="road_2" fromLane="0" toLane="0" dir="s" state="M"/>
    <connection from=":junction_0_2" to="road_2" fromLane="1" toLane="1" dir="s" state="M"/>
    <connection from=":junction_3_0" to="road_4" fromLane="0" toLane="0" dir="s" state="M"/>
    <connection from=":junction_3_0" to="road_4" fromLane="1" toLane="1" dir="s" state="M"/>
    <connection from=":junction_4_0" to="road_5" fromLane="0" toLane="1" dir="s" state="M"/>
    <connection from=":junction_4_0" to="road_5" fromLane="1" toLane="2" dir="s" state="M"/>
    <connection from=":junction_4_2" to="road_5" fromLane="0" toLane="0" dir="s" state="M"/>
    <connection from=":junction_4_2" to="road_5" fromLane="1" toLane="1" dir="s" state="M"/>
    <connection from=":junction_5_0" to="road_0" fromLane="0" toLane="0" dir="s" state="M"/>
    <connection from=":junction_5_0" to="road_0" fromLane="1" toLane="1" dir="s" state="M"/>
    <connection from=":junction_5_0" to="road_0" fromLane="2" toLane="2" dir="s" state="M"/>
    <connection from=":junction_5_0" to="road_0" fromLane="3" toLane="3" dir="s" state="M"/>
    <connection from=":junction_7_0" to="road_7" fromLane="0" toLane="0" dir="s" state="M"/>
    <connection from=":junction_7_0" to="road_7" fromLane="1" toLane="1" dir="s" state="M"/>
    <connection from=":junction_8_0" to="road_8" fromLane="0" toLane="0" dir="s" state="M"/>
    <connection from=":junction_8_0" to="road_8" fromLane="1" toLane="1" dir="s" state="M"/>

</net>
