<?xml version='1.0' encoding='UTF-8'?>
<nodes>
  <node id="junction_3" x="-106.0" y="40.0"/>
  <node id="junction_4" x="-106.0" y="-17.0" shape="-103.000000,-27.000000 -103.500000,-7.000000 -118.000000,-7.000000 -114.500000,-27.000000 -103.000000,-27.000000"/>
  <node id="junction_0" x="-0.0" y="0.0" shape="7.500000,0.000000 7.000000,20.000000 -9.000000,20.000000 -7.300000,0.000000 7.500000,0.000000"/>
  <node id="junction_5" x="3.5" y="-110.0" shape="3.500000,-110.000000 7.500000,-70.000000 -7.100000,-70.000000 -7.100000,-110.000000 3.500000,-110.000000"/>
  <node id="junction_7" x="-116.0" y="40.0"/>
  <node id="junction_8" x="-114.0" y="13.0"/>
</nodes>
